return {
    {Username = "Muscular_Gorilla", DisplayName = "Gorilla"},
    {Username = "Jsquire07", DisplayName = "DV_Jsquire07"},
    {Username = "asapzyzz", DisplayName = "iBenchYourDeadlift"},
    {Username = "ReaIZev", DisplayName = "BloodDemonArt"},
    {Username = "SleeplessSoulmate", DisplayName = "SleeplessSoulmate"},
    {Username = "Typhoon_Kang", DisplayName = "noob"},
    {Username = "nwrkr", DisplayName = "nwr"},
    {Username = "aleenaswrldd", DisplayName = "aleena"},
    {Username = "SaviGamesOnline", DisplayName = "Savi"},
    {Username = "chasemaser", DisplayName = "chase"},
    {Username = "Vorlias", DisplayName = "Vorlias"},
    {Username = "quinticat", DisplayName = "quinticat"},
    {Username = "IAmPanduhh", DisplayName = "Panduhh"},
    {Username = "zzhang12138", DisplayName = "zzhang12138"},
    {Username = "r_xbbie", DisplayName = "r_xbbie"},
    {Username = "KingBabooshka", DisplayName = "KingBabooshka"},
    {Username = "MrChickenRocket", DisplayName = "MrChickenRocket"},
    {Username = "Parameter", DisplayName = "Parameter"},
    {Username = "douglabe", DisplayName = "douglabe"},
    {Username = "sleitnick", DisplayName = "sleitnick"},
    {Username = "Cielmid", DisplayName = "Cielmid"},
    {Username = "JumboGroove", DisplayName = "JumboGroove"},
    {Username = "dreamsOfBeans", DisplayName = "dreamsOfBeans"},
    {Username = "Tshadow05", DisplayName = "Tshadow05"},
    {Username = "TheLeviathan4444", DisplayName = "TheLeviathan4444"},
    {Username = "warpmaze", DisplayName = "Maze"},
    {Username = "easynpcfox", DisplayName = "easynpcfox"},
    {Username = "JZhuTFT", DisplayName = "JZhuTFT"},
    {Username = "momijimatt1", DisplayName = "momijimatt1"},
    {Username = "sadgeBeans", DisplayName = "sadgeBeans"},
    {Username = "MomijiMatt3", DisplayName = "*MomijiMatt3"},
    {Username = "bryan3838", DisplayName = "bryan3838"},
    {Username = "oIogy", DisplayName = "Sprux"},
    {Username = "spleenhook", DisplayName = "spleenhook"},
    {Username = "ZeroPart1cle", DisplayName = "Zero"},
    {Username = "SnickTrix", DisplayName = "SnickTrix"},
    {Username = "A1phaSniper", DisplayName = "A1phaSniper"},
    {Username = "AcesHigh2000", DisplayName = "AcesHigh2000"},
    {Username = "AeroDynamic", DisplayName = "AeroDynamic"},
    {Username = "AimAssist", DisplayName = "AimAssist"},
    {Username = "AimbotCalvin", DisplayName = "AimbotCalvin"},
    {Username = "AirborneAlex", DisplayName = "AirborneAlex"},
    {Username = "AkumaXx", DisplayName = "AkumaXx"},
    {Username = "Alphyn", DisplayName = "Alphyn"},
    {Username = "AmmarBot", DisplayName = "AmmarBot"},
    {Username = "Anarchy", DisplayName = "Anarchy"},
    {Username = "AngelOfDeath22", DisplayName = "AngelOfDeath22"},
    {Username = "AnimeLover21", DisplayName = "AnimeLover21"},
    {Username = "AntiCheat", DisplayName = "AntiCheat"},
    {Username = "ApexPredator", DisplayName = "ApexPredator"},
    {Username = "ArcticFox", DisplayName = "ArcticFox"},
    {Username = "ArcticPvP", DisplayName = "ArcticPvP"},
    {Username = "ArcticWarrior", DisplayName = "ArcticWarrior"},
    {Username = "AresTheGod", DisplayName = "AresTheGod"},
    {Username = "Arsonist", DisplayName = "Arsonist"},
    {Username = "AshKetchum", DisplayName = "AshKetchum"},
    {Username = "Assassin", DisplayName = "Assassin"},
    {Username = "AstroNinja", DisplayName = "AstroN
